/*--------------------------------*- C++ -*----------------------------------*\
| =========                 |                                                 |
| \\      /  F ield         | OpenFOAM: The Open Source CFD Toolbox           |
|  \\    /   O peration     | Version:  2.4.0                                 |
|   \\  /    A nd           | Web:      www.OpenFOAM.org                      |
|    \\/     M anipulation  |                                                 |
\*---------------------------------------------------------------------------*/
FoamFile
{
    version     2.0;
    format      ascii;
    class       dictionary;
    object      blockMeshDict;
}
// * * * * * * * * * * * * * * * * * * * * * * * * * * * * * * * * * * * * * //

convertToMeters 1;

vertices
(
     	(0 0 0)
        (0.6 0 0)
        (3 0 0)
        (0 1 0)
        (0.6 1 0)
        (3 1 0)
        (0.6 0.2 0)
        (3 0.2 0)
	(0 0 0.1)
        (0.6 0 0.1)
        (3 0 0.1)
        (0 1 0.1)
        (0.6 1 0.1)
        (3 1 0.1)
        (0.6 0.2 0.1)
        (3 0.2 0.1)

);

blocks
(
    //block 0
    hex(0 1 4 3 8 9 12 11) (20 20 1) simpleGrading(1 1 1)
    //block 1
    hex(1 2 7 6 9 10 15 14) (20 20 1) simpleGrading(1 1 1)
    //block 2
    hex(6 7 5 4 14 15 13 12) (20 20 1) simpleGrading(1 1 1)
);

edges
(
    // fill in the details
    //none?
);

boundary
(
    inlet
    {
        type patch;
        faces
        (

        (0 8 11 3)

        );
    }
    outlet
    {
        type patch;
        faces
        (

        (7 15 13 5)

        );
    }
    bottom
    {
        type symmetryPlane;
        faces
        (
       
        // fill in the details
	(0 8 9 1)
	(6 14 15 7)

        );
    }
    top
    {
        type symmetryPlane;
        faces
        (
       
        (3 11 12 4)
	(4 12 13 5)

        );
    }
    obstacle
    {
        type patch;
        faces
        (
       
        (1 9 14 6)
	(6 14 15 7)
	//(2 10 15 7)

        );
    }
);

mergePatchPairs
(
);

// ************************************************************************* //
